   Input file: titrat_sim1.phrq
  Output file: titrat_sim1.phrq.out
Database file: ../database/Amm.dat

------------------
Reading data base.
------------------

	SOLUTION_MASTER_SPECIES
	SOLUTION_SPECIES
	PHASES
	EXCHANGE_MASTER_SPECIES
	EXCHANGE_SPECIES
	SURFACE_MASTER_SPECIES
	SURFACE_SPECIES
	RATES
	END
------------------------------------
Reading input data for simulation 1.
------------------------------------

	DATABASE ../database/Amm.dat 
	SELECTED_OUTPUT
	   file          ../output/titrat1.sel
	   totals        Amm C Ca Cl
	   molalities    Amm AmmH+
	   equilibrium_phases Calcite Aragonite
	   saturation_indices Calcite Aragonite CO2(g) Amm(g)
	   temperature          t
	   distance          f
	   time          f
	   step          f
	   pe            f
	SOLUTION 1
	  units    mmol/kgw
	  temp     15
	  pH         7.5
	  Amm        470
	  C          240
	  Cl           1 -charge
	END
-------------------------------------------
Beginning of initial solution calculations.
-------------------------------------------

Initial solution 1.	

-----------------------------Solution composition------------------------------

	Elements           Molality       Moles

	Amm               4.700e-01   4.700e-01
	C                 2.400e-01   2.400e-01
	Cl                2.390e-01   2.390e-01  Charge balance

----------------------------Description of solution----------------------------

                                       pH  =   7.500    
                                       pe  =   4.000    
      Specific Conductance (µS/cm,  15°C)  = 39085
                          Density (g/cm³)  =   1.01122
                               Volume (L)  =   1.01995
                        Activity of water  =   0.984
                 Ionic strength (mol/kgw)  =   4.686e-01
                       Mass of water (kg)  =   1.000e+00
                 Total alkalinity (eq/kg)  =   2.310e-01
                       Total CO2 (mol/kg)  =   2.400e-01
                         Temperature (°C)  =  15.00
                  Electrical balance (eq)  =  -3.712e-13
 Percent error, 100*(Cat-|An|)/(Cat+|An|)  =  -0.00
                               Iterations  =   9
                                  Total H  = 1.117074e+02
                                  Total O  = 5.621419e+01

----------------------------Distribution of species----------------------------

                                               Log       Log       Log    mole V
   Species          Molality    Activity  Molality  Activity     Gamma   cm³/mol

   OH-             2.199e-07   1.411e-07    -6.658    -6.850    -0.193     -3.55
   H+              4.111e-08   3.162e-08    -7.386    -7.500    -0.114      0.00
   H2O             5.551e+01   9.839e-01     1.744    -0.007     0.000     18.03
Amm           4.700e-01
   AmmH+           4.678e-01   2.817e-01    -0.330    -0.550    -0.220     18.00
   Amm             2.192e-03   2.442e-03    -2.659    -2.612     0.047     23.89
C(-4)         0.000e+00
   CH4             0.000e+00   0.000e+00   -68.130   -68.083     0.047     34.53
C(4)          2.400e-01
   HCO3-           2.272e-01   1.588e-01    -0.644    -0.799    -0.156     25.56
   CO2             1.202e-02   1.339e-02    -1.920    -1.873     0.047     33.93
   CO3-2           7.843e-04   1.873e-04    -3.106    -3.728    -0.622     -3.67
   (CO2)2          2.082e-06   2.319e-06    -5.682    -5.635     0.047     67.86
Cl            2.390e-01
   Cl-             2.390e-01   1.574e-01    -0.622    -0.803    -0.182     18.24
H(0)          1.409e-26
   H2              7.045e-27   7.848e-27   -26.152   -26.105     0.047     28.62
O(0)          0.000e+00
   O2              0.000e+00   0.000e+00   -43.570   -43.523     0.047     29.51

------------------------------Saturation indices-------------------------------

  Phase               SI** log IAP   log K(288 K,   1 atm)

  Amm(g)           -4.63     -2.61    2.01  Amm
  CH4(g)          -65.39    -68.08   -2.70  CH4
  CO2(g)           -0.53     -1.87   -1.34  CO2
  H2(g)           -23.03    -26.11   -3.07  H2
  H2O(g)           -1.78     -0.01    1.77  H2O
  O2(g)           -40.71    -43.52   -2.81  O2

**For a gas, SI = log10(fugacity). Fugacity = pressure * phi / 1 atm.
  For ideal gases, phi = 1.

------------------
End of simulation.
------------------

------------------------------------
Reading input data for simulation 2.
------------------------------------

	REACTION 1
	  Ca(OH)2 1
	  0.5 moles in 300 steps
	END
------------------
End of simulation.
------------------

------------------------------------
Reading input data for simulation 3.
------------------------------------

	EQUILIBRIUM_PHASES 1
	  Aragonite 1 0
	END
------------------
End of simulation.
------------------

------------------------------------
Reading input data for simulation 4.
------------------------------------

	USE SOLUTION 1
	USE REACTION 1
	END
-----------------------------------------
Beginning of batch-reaction calculations.
-----------------------------------------

Reaction step 1.

Using solution 1.	
Using reaction 1.	

Reaction 1.	

	  1.667e-03 moles of the following reaction have been added:

	                 Relative
	Reactant            moles

	Ca(OH)2              1.00000

	                 Relative
	Element             moles
	Ca                   1.00000
	H                    2.00000
	O                    2.00000

-----------------------------Solution composition------------------------------

	Elements           Molality       Moles

	Amm               4.700e-01   4.700e-01
	C                 2.400e-01   2.400e-01
	Ca                1.667e-03   1.667e-03
	Cl                2.390e-01   2.390e-01

----------------------------Description of solution----------------------------

                                       pH  =   7.602      Charge balance
                                       pe  =  -2.138      Adjusted to redox equilibrium
      Specific Conductance (µS/cm,  15°C)  = 39135
                          Density (g/cm³)  =   1.01137
                               Volume (L)  =   1.01991
                        Activity of water  =   0.984
                 Ionic strength (mol/kgw)  =   4.718e-01
                       Mass of water (kg)  =   1.000e+00
                 Total alkalinity (eq/kg)  =   2.343e-01
                       Total CO2 (mol/kg)  =   2.400e-01
                         Temperature (°C)  =  15.00
                  Electrical balance (eq)  =  -2.757e-11
 Percent error, 100*(Cat-|An|)/(Cat+|An|)  =  -0.00
                               Iterations  =  13
                                  Total H  = 1.117108e+02
                                  Total O  = 5.621753e+01

----------------------------Distribution of species----------------------------

                                               Log       Log       Log    mole V
   Species          Molality    Activity  Molality  Activity     Gamma   cm³/mol

   OH-             2.784e-07   1.785e-07    -6.555    -6.748    -0.193     -3.55
   H+              3.251e-08   2.500e-08    -7.488    -7.602    -0.114      0.00
   H2O             5.551e+01   9.838e-01     1.744    -0.007     0.000     18.03
Amm           4.700e-01
   AmmH+           4.672e-01   2.811e-01    -0.330    -0.551    -0.221     18.01
   Amm             2.765e-03   3.082e-03    -2.558    -2.511     0.047     23.89
C(-4)         1.146e-20
   CH4             1.146e-20   1.278e-20   -19.941   -19.894     0.047     34.53
C(4)          2.400e-01
   HCO3-           2.287e-01   1.598e-01    -0.641    -0.796    -0.156     25.57
   CO2             9.556e-03   1.065e-02    -2.020    -1.973     0.047     33.93
   CO3-2           1.000e-03   2.383e-04    -3.000    -3.623    -0.623     -3.66
   CaHCO3+         6.161e-04   4.394e-04    -3.210    -3.357    -0.147      9.47
   CaCO3           7.963e-05   8.876e-05    -4.099    -4.052     0.047    -14.63
   (CO2)2          1.317e-06   1.468e-06    -5.880    -5.833     0.047     67.86
Ca            1.667e-03
   Ca+2            9.709e-04   2.604e-04    -3.013    -3.584    -0.572    -17.16
   CaHCO3+         6.161e-04   4.394e-04    -3.210    -3.357    -0.147      9.47
   CaCO3           7.963e-05   8.876e-05    -4.099    -4.052     0.047    -14.63
   CaOH+           2.312e-09   1.701e-09    -8.636    -8.769    -0.133     (0)  
Cl            2.390e-01
   Cl-             2.390e-01   1.573e-01    -0.622    -0.803    -0.182     18.24
H(0)          1.662e-14
   H2              8.311e-15   9.265e-15   -14.080   -14.033     0.047     28.62
O(0)          0.000e+00
   O2              0.000e+00   0.000e+00   -67.714   -67.667     0.047     29.51

------------------------------Saturation indices-------------------------------

  Phase               SI** log IAP   log K(288 K,   1 atm)

  Amm(g)           -4.52     -2.51    2.01  Amm
  Aragonite         1.07     -7.21   -8.28  CaCO3
  Calcite           1.22     -7.21   -8.43  CaCO3
  CH4(g)          -17.20    -19.89   -2.70  CH4
  CO2(g)           -0.63     -1.97   -1.34  CO2
  H2(g)           -10.96    -14.03   -3.07  H2
  H2O(g)           -1.78     -0.01    1.77  H2O
  O2(g)           -64.85    -67.67   -2.81  O2

**For a gas, SI = log10(fugacity). Fugacity = pressure * phi / 1 atm.
  For ideal gases, phi = 1.

Reaction step 2.

Using solution 1.	
Using reaction 1.	

Reaction 1.	

	  3.333e-03 moles of the following reaction have been added:

	                 Relative
	Reactant            moles

	Ca(OH)2              1.00000

	                 Relative
	Element             moles
	Ca                   1.00000
	H                    2.00000
	O                    2.00000

-----------------------------Solution composition------------------------------

	Elements           Molality       Moles

	Amm               4.700e-01   4.700e-01
	C                 2.400e-01   2.400e-01
	Ca                3.333e-03   3.333e-03
	Cl                2.390e-01   2.390e-01

----------------------------Description of solution----------------------------

                                       pH  =   7.713      Charge balance
                                       pe  =  -2.009      Adjusted to redox equilibrium
      Specific Conductance (µS/cm,  15°C)  = 39171
                          Density (g/cm³)  =   1.01152
                               Volume (L)  =   1.01989
                        Activity of water  =   0.984
                 Ionic strength (mol/kgw)  =   4.747e-01
                       Mass of water (kg)  =   1.000e+00
                 Total alkalinity (eq/kg)  =   2.376e-01
                       Total CO2 (mol/kg)  =   2.400e-01
                         Temperature (°C)  =  15.00
                  Electrical balance (eq)  =  -6.713e-11
 Percent error, 100*(Cat-|An|)/(Cat+|An|)  =  -0.00
                               Iterations  =  12
                                  Total H  = 1.117141e+02
                                  Total O  = 5.622086e+01

----------------------------Distribution of species----------------------------

                                               Log       Log       Log    mole V
   Species          Molality    Activity  Molality  Activity     Gamma   cm³/mol

   OH-             3.594e-07   2.303e-07    -6.444    -6.638    -0.193     -3.54
   H+              2.521e-08   1.938e-08    -7.598    -7.713    -0.114      0.00
   H2O             5.551e+01   9.838e-01     1.744    -0.007     0.000     18.03
Amm           4.700e-01
   AmmH+           4.664e-01   2.803e-01    -0.331    -0.552    -0.221     18.01
   Amm             3.554e-03   3.965e-03    -2.449    -2.402     0.047     23.89
C(-4)         1.077e-22
   CH4             1.077e-22   1.201e-22   -21.968   -21.921     0.047     34.53
C(4)          2.400e-01
   HCO3-           2.298e-01   1.605e-01    -0.639    -0.795    -0.156     25.58
   CO2             7.434e-03   8.293e-03    -2.129    -2.081     0.047     33.93
   CO3-2           1.299e-03   3.088e-04    -2.887    -3.510    -0.624     -3.65
   CaHCO3+         1.218e-03   8.682e-04    -2.914    -3.061    -0.147      9.47
   CaCO3           2.028e-04   2.263e-04    -3.693    -3.645     0.047    -14.63
   (CO2)2          7.976e-07   8.898e-07    -6.098    -6.051     0.047     67.86
Ca            3.333e-03
   Ca+2            1.912e-03   5.124e-04    -2.718    -3.290    -0.572    -17.16
   CaHCO3+         1.218e-03   8.682e-04    -2.914    -3.061    -0.147      9.47
   CaCO3           2.028e-04   2.263e-04    -3.693    -3.645     0.047    -14.63
   CaOH+           5.867e-09   4.317e-09    -8.232    -8.365    -0.133     (0)  
Cl            2.390e-01
   Cl-             2.390e-01   1.572e-01    -0.622    -0.804    -0.182     18.24
H(0)          5.506e-15
   H2              2.753e-15   3.071e-15   -14.560   -14.513     0.047     28.62
O(0)          0.000e+00
   O2              0.000e+00   0.000e+00   -66.755   -66.708     0.047     29.51

------------------------------Saturation indices-------------------------------

  Phase               SI** log IAP   log K(288 K,   1 atm)

  Amm(g)           -4.41     -2.40    2.01  Amm
  Aragonite         1.48     -6.80   -8.28  CaCO3
  Calcite           1.63     -6.80   -8.43  CaCO3
  CH4(g)          -19.22    -21.92   -2.70  CH4
  CO2(g)           -0.74     -2.08   -1.34  CO2
  H2(g)           -11.44    -14.51   -3.07  H2
  H2O(g)           -1.78     -0.01    1.77  H2O
  O2(g)           -63.90    -66.71   -2.81  O2

**For a gas, SI = log10(fugacity). Fugacity = pressure * phi / 1 atm.
  For ideal gases, phi = 1.

Reaction step 3.

Using solution 1.	
Using reaction 1.	

Reaction 1.	

	  5.000e-03 moles of the following reaction have been added:

	                 Relative
	Reactant            moles

	Ca(OH)2              1.00000

	                 Relative
	Element             moles
	Ca                   1.00000
	H                    2.00000
	O                    2.00000

-----------------------------Solution composition------------------------------

	Elements           Molality       Moles

	Amm               4.700e-01   4.700e-01
	C                 2.400e-01   2.400e-01
	Ca                5.000e-03   5.000e-03
	Cl                2.390e-01   2.390e-01

----------------------------Description of solution----------------------------

                                       pH  =   7.826      Charge balance
                                       pe  =  -2.427      Adjusted to redox equilibrium
      Specific Conductance (µS/cm,  15°C)  = 39188
                          Density (g/cm³)  =   1.01166
                               Volume (L)  =   1.01987
                        Activity of water  =   0.984
                 Ionic strength (mol/kgw)  =   4.773e-01
                       Mass of water (kg)  =   1.000e+00
                 Total alkalinity (eq/kg)  =   2.409e-01
                       Total CO2 (mol/kg)  =   2.400e-01
                         Temperature (°C)  =  15.00
                  Electrical balance (eq)  =  -7.242e-10
 Percent error, 100*(Cat-|An|)/(Cat+|An|)  =  -0.00
                               Iterations  =  12
                                  Total H  = 1.117174e+02
                                  Total O  = 5.622419e+01

----------------------------Distribution of species----------------------------

                                               Log       Log       Log    mole V
   Species          Molality    Activity  Molality  Activity     Gamma   cm³/mol

   OH-             4.673e-07   2.992e-07    -6.330    -6.524    -0.194     -3.54
   H+              1.941e-08   1.492e-08    -7.712    -7.826    -0.114      0.00
   H2O             5.551e+01   9.838e-01     1.744    -0.007     0.000     18.03
Amm           4.700e-01
   AmmH+           4.654e-01   2.794e-01    -0.332    -0.554    -0.222     18.01
   Amm             4.601e-03   5.135e-03    -2.337    -2.289     0.048     23.89
C(-4)         2.276e-20
   CH4             2.276e-20   2.541e-20   -19.643   -19.595     0.048     34.53
C(4)          2.400e-01
   HCO3-           2.304e-01   1.608e-01    -0.638    -0.794    -0.156     25.59
   CO2             5.729e-03   6.395e-03    -2.242    -2.194     0.048     33.93
   CaHCO3+         1.796e-03   1.280e-03    -2.746    -2.893    -0.147      9.47
   CO3-2           1.694e-03   4.020e-04    -2.771    -3.396    -0.625     -3.64
   CaCO3           3.882e-04   4.333e-04    -3.411    -3.363     0.048    -14.63
   (CO2)2          4.740e-07   5.290e-07    -6.324    -6.277     0.048     67.86
Ca            5.000e-03
   Ca+2            2.816e-03   7.538e-04    -2.550    -3.123    -0.572    -17.15
   CaHCO3+         1.796e-03   1.280e-03    -2.746    -2.893    -0.147      9.47
   CaCO3           3.882e-04   4.333e-04    -3.411    -3.363     0.048    -14.63
   CaOH+           1.121e-08   8.251e-09    -7.950    -8.083    -0.133     (0)  
Cl            2.390e-01
   Cl-             2.390e-01   1.571e-01    -0.622    -0.804    -0.182     18.25
H(0)          2.240e-14
   H2              1.120e-14   1.250e-14   -13.951   -13.903     0.048     28.62
O(0)          0.000e+00
   O2              0.000e+00   0.000e+00   -67.975   -67.927     0.048     29.51

------------------------------Saturation indices-------------------------------

  Phase               SI** log IAP   log K(288 K,   1 atm)

  Amm(g)           -4.30     -2.29    2.01  Amm
  Aragonite         1.76     -6.52   -8.28  CaCO3
  Calcite           1.91     -6.52   -8.43  CaCO3
  CH4(g)          -16.90    -19.60   -2.70  CH4
  CO2(g)           -0.85     -2.19   -1.34  CO2
  H2(g)           -10.83    -13.90   -3.07  H2
  H2O(g)           -1.78     -0.01    1.77  H2O
  O2(g)           -65.11    -67.93   -2.81  O2

**For a gas, SI = log10(fugacity). Fugacity = pressure * phi / 1 atm.
  For ideal gases, phi = 1.

Reaction step 4.

Using solution 1.	
Using reaction 1.	

Reaction 1.	

	  6.667e-03 moles of the following reaction have been added:

	                 Relative
	Reactant            moles

	Ca(OH)2              1.00000

	                 Relative
	Element             moles
	Ca                   1.00000
	H                    2.00000
	O                    2.00000

-----------------------------Solution composition------------------------------

	Elements           Molality       Moles

	Amm               4.700e-01   4.700e-01
	C                 2.400e-01   2.400e-01
	Ca                6.666e-03   6.667e-03
	Cl                2.390e-01   2.390e-01

----------------------------Description of solution----------------------------

                                       pH  =   7.936      Charge balance
                                       pe  =  -2.392      Adjusted to redox equilibrium
      Specific Conductance (µS/cm,  15°C)  = 39187
                          Density (g/cm³)  =   1.01179
                               Volume (L)  =   1.01986
                        Activity of water  =   0.984
                 Ionic strength (mol/kgw)  =   4.796e-01
                       Mass of water (kg)  =   1.000e+00
                 Total alkalinity (eq/kg)  =   2.443e-01
                       Total CO2 (mol/kg)  =   2.400e-01
                         Temperature (°C)  =  15.00
                  Electrical balance (eq)  =  -7.527e-10
 Percent error, 100*(Cat-|An|)/(Cat+|An|)  =  -0.00
                               Iterations  =  12
                                  Total H  = 1.117208e+02
                                  Total O  = 5.622753e+01

----------------------------Distribution of species----------------------------

                                               Log       Log       Log    mole V
   Species          Molality    Activity  Molality  Activity     Gamma   cm³/mol

   OH-             6.019e-07   3.852e-07    -6.220    -6.414    -0.194     -3.54
   H+              1.508e-08   1.159e-08    -7.822    -7.936    -0.114      0.00
   H2O             5.551e+01   9.838e-01     1.744    -0.007     0.000     18.03
Amm           4.700e-01
   AmmH+           4.641e-01   2.784e-01    -0.333    -0.555    -0.222     18.01
   Amm             5.898e-03   6.587e-03    -2.229    -2.181     0.048     23.89
C(-4)         1.217e-21
   CH4             1.217e-21   1.360e-21   -20.915   -20.867     0.048     34.53
C(4)          2.400e-01
   HCO3-           2.304e-01   1.607e-01    -0.638    -0.794    -0.156     25.59
   CO2             4.446e-03   4.965e-03    -2.352    -2.304     0.048     33.93
   CaHCO3+         2.341e-03   1.667e-03    -2.631    -2.778    -0.147      9.47
   CO3-2           2.183e-03   5.172e-04    -2.661    -3.286    -0.625     -3.64
   CaCO3           6.509e-04   7.269e-04    -3.186    -3.139     0.048    -14.63
   (CO2)2          2.856e-07   3.189e-07    -6.544    -6.496     0.048     67.86
Ca            6.666e-03
   Ca+2            3.674e-03   9.827e-04    -2.435    -3.008    -0.573    -17.15
   CaHCO3+         2.341e-03   1.667e-03    -2.631    -2.778    -0.147      9.47
   CaCO3           6.509e-04   7.269e-04    -3.186    -3.139     0.048    -14.63
   CaOH+           1.881e-08   1.385e-08    -7.726    -7.859    -0.133     (0)  
Cl            2.390e-01
   Cl-             2.390e-01   1.570e-01    -0.622    -0.804    -0.183     18.25
H(0)          1.147e-14
   H2              5.734e-15   6.404e-15   -14.242   -14.194     0.048     28.62
O(0)          0.000e+00
   O2              0.000e+00   0.000e+00   -67.394   -67.346     0.048     29.51

------------------------------Saturation indices-------------------------------

  Phase               SI** log IAP   log K(288 K,   1 atm)

  Amm(g)           -4.19     -2.18    2.01  Amm
  Aragonite         1.99     -6.29   -8.28  CaCO3
  Calcite           2.14     -6.29   -8.43  CaCO3
  CH4(g)          -18.17    -20.87   -2.70  CH4
  CO2(g)           -0.96     -2.30   -1.34  CO2
  H2(g)           -11.12    -14.19   -3.07  H2
  H2O(g)           -1.78     -0.01    1.77  H2O
  O2(g)           -64.53    -67.35   -2.81  O2

**For a gas, SI = log10(fugacity). Fugacity = pressure * phi / 1 atm.
  For ideal gases, phi = 1.

Reaction step 5.

Using solution 1.	
Using reaction 1.	

Reaction 1.	

	  8.333e-03 moles of the following reaction have been added:

	                 Relative
	Reactant            moles

	Ca(OH)2              1.00000

	                 Relative
	Element             moles
	Ca                   1.00000
	H                    2.00000
	O                    2.00000

-----------------------------Solution composition------------------------------

	Elements           Molality       Moles

	Amm               4.699e-01   4.700e-01
	C                 2.400e-01   2.400e-01
	Ca                8.332e-03   8.333e-03
	Cl                2.390e-01   2.390e-01

----------------------------Description of solution----------------------------

                                       pH  =   8.036      Charge balance
                                       pe  =  -2.546      Adjusted to redox equilibrium
      Specific Conductance (µS/cm,  15°C)  = 39170
                          Density (g/cm³)  =   1.01192
                               Volume (L)  =   1.01985
                        Activity of water  =   0.984
                 Ionic strength (mol/kgw)  =   4.816e-01
                       Mass of water (kg)  =   1.000e+00
                 Total alkalinity (eq/kg)  =   2.476e-01
                       Total CO2 (mol/kg)  =   2.400e-01
                         Temperature (°C)  =  15.00
                  Electrical balance (eq)  =  -4.795e-12
 Percent error, 100*(Cat-|An|)/(Cat+|An|)  =  -0.00
                               Iterations  =  12
                                  Total H  = 1.117241e+02
                                  Total O  = 5.623086e+01

----------------------------Distribution of species----------------------------

                                               Log       Log       Log    mole V
   Species          Molality    Activity  Molality  Activity     Gamma   cm³/mol

   OH-             7.584e-07   4.851e-07    -6.120    -6.314    -0.194     -3.53
   H+              1.197e-08   9.200e-09    -7.922    -8.036    -0.114      0.00
   H2O             5.551e+01   9.838e-01     1.744    -0.007     0.000     18.03
Amm           4.699e-01
   AmmH+           4.625e-01   2.773e-01    -0.335    -0.557    -0.222     18.01
   Amm             7.396e-03   8.263e-03    -2.131    -2.083     0.048     23.89
C(-4)         2.616e-21
   CH4             2.616e-21   2.922e-21   -20.582   -20.534     0.048     34.53
C(4)          2.400e-01
   HCO3-           2.299e-01   1.603e-01    -0.639    -0.795    -0.156     25.60
   CO2             3.520e-03   3.933e-03    -2.453    -2.405     0.048     33.93
   CaHCO3+         2.849e-03   2.029e-03    -2.545    -2.693    -0.147      9.47
   CO3-2           2.746e-03   6.498e-04    -2.561    -3.187    -0.626     -3.63
   CaCO3           9.971e-04   1.114e-03    -3.001    -2.953     0.048    -14.63
   (CO2)2          1.791e-07   2.001e-07    -6.747    -6.699     0.048     67.86
Ca            8.332e-03
   Ca+2            4.486e-03   1.199e-03    -2.348    -2.921    -0.573    -17.15
   CaHCO3+         2.849e-03   2.029e-03    -2.545    -2.693    -0.147      9.47
   CaCO3           9.971e-04   1.114e-03    -3.001    -2.953     0.048    -14.63
   CaOH+           2.890e-08   2.128e-08    -7.539    -7.672    -0.133     (0)  
Cl            2.390e-01
   Cl-             2.390e-01   1.569e-01    -0.622    -0.804    -0.183     18.25
H(0)          1.471e-14
   H2              7.357e-15   8.219e-15   -14.133   -14.085     0.048     28.62
O(0)          0.000e+00
   O2              0.000e+00   0.000e+00   -67.611   -67.563     0.048     29.51

------------------------------Saturation indices-------------------------------

  Phase               SI** log IAP   log K(288 K,   1 atm)

  Amm(g)           -4.10     -2.08    2.01  Amm
  Aragonite         2.17     -6.11   -8.28  CaCO3
  Calcite           2.32     -6.11   -8.43  CaCO3
  CH4(g)          -17.84    -20.53   -2.70  CH4
  CO2(g)           -1.06     -2.41   -1.34  CO2
  H2(g)           -11.01    -14.09   -3.07  H2
  H2O(g)           -1.78     -0.01    1.77  H2O
  O2(g)           -64.75    -67.56   -2.81  O2

**For a gas, SI = log10(fugacity). Fugacity = pressure * phi / 1 atm.
  For ideal gases, phi = 1.

Reaction step 6.

Using solution 1.	
Using reaction 1.	

Reaction 1.	

	  1.000e-02 moles of the following reaction have been added:

	                 Relative
	Reactant            moles

	Ca(OH)2              1.00000

	                 Relative
	Element             moles
	Ca                   1.00000
	H                    2.00000
	O                    2.00000

-----------------------------Solution composition------------------------------

	Elements           Molality       Moles

	Amm               4.699e-01   4.700e-01
	C                 2.400e-01   2.400e-01
	Ca                9.998e-03   1.000e-02
	Cl                2.390e-01   2.390e-01

----------------------------Description of solution----------------------------

                                       pH  =   8.125      Charge balance
                                       pe  =  -2.317      Adjusted to redox equilibrium
      Specific Conductance (µS/cm,  15°C)  = 39141
                          Density (g/cm³)  =   1.01204
                               Volume (L)  =   1.01985
                        Activity of water  =   0.984
                 Ionic strength (mol/kgw)  =   4.833e-01
                       Mass of water (kg)  =   1.000e+00
                 Total alkalinity (eq/kg)  =   2.509e-01
                       Total CO2 (mol/kg)  =   2.400e-01
                         Temperature (°C)  =  15.00
                  Electrical balance (eq)  =  -7.950e-13
 Percent error, 100*(Cat-|An|)/(Cat+|An|)  =  -0.00
                               Iterations  =  12
                                  Total H  = 1.117274e+02
                                  Total O  = 5.623419e+01

----------------------------Distribution of species----------------------------

                                               Log       Log       Log    mole V
   Species          Molality    Activity  Molality  Activity     Gamma   cm³/mol

   OH-             9.303e-07   5.948e-07    -6.031    -6.226    -0.194     -3.53
   H+              9.767e-09   7.503e-09    -8.010    -8.125    -0.115      0.00
   H2O             5.551e+01   9.838e-01     1.744    -0.007     0.000     18.03
Amm           4.699e-01
   AmmH+           4.609e-01   2.762e-01    -0.336    -0.559    -0.222     18.01
   Amm             9.027e-03   1.009e-02    -2.044    -1.996     0.048     23.89
C(-4)         6.044e-24
   CH4             6.044e-24   6.756e-24   -23.219   -23.170     0.048     34.53
C(4)          2.400e-01
   HCO3-           2.290e-01   1.597e-01    -0.640    -0.797    -0.157     25.61
   CO3-2           3.357e-03   7.935e-04    -2.474    -3.100    -0.626     -3.62
   CaHCO3+         3.322e-03   2.365e-03    -2.479    -2.626    -0.148      9.47
   CO2             2.858e-03   3.194e-03    -2.544    -2.496     0.048     33.93
   CaCO3           1.424e-03   1.592e-03    -2.846    -2.798     0.048    -14.63
   (CO2)2          1.181e-07   1.320e-07    -6.928    -6.879     0.048     67.86
Ca            9.998e-03
   Ca+2            5.252e-03   1.403e-03    -2.280    -2.853    -0.573    -17.15
   CaHCO3+         3.322e-03   2.365e-03    -2.479    -2.626    -0.148      9.47
   CaCO3           1.424e-03   1.592e-03    -2.846    -2.798     0.048    -14.63
   CaOH+           4.147e-08   3.053e-08    -7.382    -7.515    -0.133     (0)  
Cl            2.390e-01
   Cl-             2.390e-01   1.569e-01    -0.622    -0.805    -0.183     18.25
H(0)          3.397e-15
   H2              1.699e-15   1.898e-15   -14.770   -14.722     0.048     28.62
O(0)          0.000e+00
   O2              0.000e+00   0.000e+00   -66.339   -66.290     0.048     29.51

------------------------------Saturation indices-------------------------------

  Phase               SI** log IAP   log K(288 K,   1 atm)

  Amm(g)           -4.01     -2.00    2.01  Amm
  Aragonite         2.33     -5.95   -8.28  CaCO3
  Calcite           2.48     -5.95   -8.43  CaCO3
  CH4(g)          -20.47    -23.17   -2.70  CH4
  CO2(g)           -1.15     -2.50   -1.34  CO2
  H2(g)           -11.65    -14.72   -3.07  H2
  H2O(g)           -1.78     -0.01    1.77  H2O
  O2(g)           -63.48    -66.29   -2.81  O2

**For a gas, SI = log10(fugacity). Fugacity = pressure * phi / 1 atm.
  For ideal gases, phi = 1.

Reaction step 7.

Using solution 1.	
Using reaction 1.	

Reaction 1.	

	  1.167e-02 moles of the following reaction have been added:

	                 Relative
	Reactant            moles

	Ca(OH)2              1.00000

	                 Relative
	Element             moles
	Ca                   1.00000
	H                    2.00000
	O                    2.00000

-----------------------------Solution composition------------------------------

	Elements           Molality       Moles

	Amm               4.699e-01   4.700e-01
	C                 2.399e-01   2.400e-01
	Ca                1.166e-02   1.167e-02
	Cl                2.390e-01   2.390e-01

----------------------------Description of solution----------------------------

                                       pH  =   8.202      Charge balance
                                       pe  =  -2.530      Adjusted to redox equilibrium
      Specific Conductance (µS/cm,  15°C)  = 39104
                          Density (g/cm³)  =   1.01216
                               Volume (L)  =   1.01985
                        Activity of water  =   0.984
                 Ionic strength (mol/kgw)  =   4.848e-01
                       Mass of water (kg)  =   1.000e+00
                 Total alkalinity (eq/kg)  =   2.542e-01
                       Total CO2 (mol/kg)  =   2.399e-01
                         Temperature (°C)  =  15.00
                  Electrical balance (eq)  =  -2.076e-10
 Percent error, 100*(Cat-|An|)/(Cat+|An|)  =  -0.00
                               Iterations  =  12
                                  Total H  = 1.117308e+02
                                  Total O  = 5.623753e+01

----------------------------Distribution of species----------------------------

                                               Log       Log       Log    mole V
   Species          Molality    Activity  Molality  Activity     Gamma   cm³/mol

   OH-             1.112e-06   7.109e-07    -5.954    -6.148    -0.194     -3.53
   H+              8.173e-09   6.278e-09    -8.088    -8.202    -0.115      0.00
   H2O             5.551e+01   9.838e-01     1.744    -0.007     0.000     18.03
Amm           4.699e-01
   AmmH+           4.591e-01   2.750e-01    -0.338    -0.561    -0.223     18.01
   Amm             1.074e-02   1.201e-02    -1.969    -1.921     0.048     23.89
C(-4)         6.203e-23
   CH4             6.203e-23   6.936e-23   -22.207   -22.159     0.048     34.53
C(4)          2.399e-01
   HCO3-           2.279e-01   1.589e-01    -0.642    -0.799    -0.157     25.61
   CO3-2           3.996e-03   9.435e-04    -2.398    -3.025    -0.627     -3.62
   CaHCO3+         3.760e-03   2.676e-03    -2.425    -2.572    -0.148      9.47
   CO2             2.378e-03   2.659e-03    -2.624    -2.575     0.048     33.93
   CaCO3           1.926e-03   2.153e-03    -2.715    -2.667     0.048    -14.63
   (CO2)2          8.181e-08   9.147e-08    -7.087    -7.039     0.048     67.86
Ca            1.166e-02
   Ca+2            5.978e-03   1.596e-03    -2.223    -2.797    -0.574    -17.15
   CaHCO3+         3.760e-03   2.676e-03    -2.425    -2.572    -0.148      9.47
   CaCO3           1.926e-03   2.153e-03    -2.715    -2.667     0.048    -14.63
   CaOH+           5.637e-08   4.150e-08    -7.249    -7.382    -0.133     (0)  
Cl            2.390e-01
   Cl-             2.390e-01   1.568e-01    -0.622    -0.805    -0.183     18.25
H(0)          6.364e-15
   H2              3.182e-15   3.558e-15   -14.497   -14.449     0.048     28.62
O(0)          0.000e+00
   O2              0.000e+00   0.000e+00   -66.884   -66.836     0.048     29.51

------------------------------Saturation indices-------------------------------

  Phase               SI** log IAP   log K(288 K,   1 atm)

  Amm(g)           -3.93     -1.92    2.01  Amm
  Aragonite         2.46     -5.82   -8.28  CaCO3
  Calcite           2.61     -5.82   -8.43  CaCO3
  CH4(g)          -19.46    -22.16   -2.70  CH4
  CO2(g)           -1.23     -2.58   -1.34  CO2
  H2(g)           -11.38    -14.45   -3.07  H2
  H2O(g)           -1.78     -0.01    1.77  H2O
  O2(g)           -64.02    -66.84   -2.81  O2

**For a gas, SI = log10(fugacity). Fugacity = pressure * phi / 1 atm.
  For ideal gases, phi = 1.

Reaction step 8.

Using solution 1.	
Using reaction 1.	

Reaction 1.	

	  1.333e-02 moles of the following reaction have been added:

	                 Relative
	Reactant            moles

	Ca(OH)2              1.00000

	                 Relative
	Element             moles
	Ca                   1.00000
	H                    2.00000
	O                    2.00000

-----------------------------Solution composition------------------------------

	Elements           Molality       Moles

	Amm               4.699e-01   4.700e-01
	C                 2.399e-01   2.400e-01
	Ca                1.333e-02   1.333e-02
	Cl                2.390e-01   2.390e-01

----------------------------Description of solution----------------------------

                                       pH  =   8.270      Charge balance
                                       pe  =  -2.884      Adjusted to redox equilibrium
      Specific Conductance (µS/cm,  15°C)  = 39061
                          Density (g/cm³)  =   1.01228
                               Volume (L)  =   1.01985
                        Activity of water  =   0.984
                 Ionic strength (mol/kgw)  =   4.862e-01
                       Mass of water (kg)  =   1.000e+00
                 Total alkalinity (eq/kg)  =   2.575e-01
                       Total CO2 (mol/kg)  =   2.399e-01
                         Temperature (°C)  =  15.00
                  Electrical balance (eq)  =  -2.208e-10
 Percent error, 100*(Cat-|An|)/(Cat+|An|)  =  -0.00
                               Iterations  =  11
                                  Total H  = 1.117341e+02
                                  Total O  = 5.624086e+01

----------------------------Distribution of species----------------------------

                                               Log       Log       Log    mole V
   Species          Molality    Activity  Molality  Activity     Gamma   cm³/mol

   OH-             1.301e-06   8.309e-07    -5.886    -6.080    -0.195     -3.52
   H+              6.993e-09   5.371e-09    -8.155    -8.270    -0.115      0.00
   H2O             5.551e+01   9.838e-01     1.744    -0.007     0.000     18.03
Amm           4.699e-01
   AmmH+           4.574e-01   2.738e-01    -0.340    -0.563    -0.223     18.01
   Amm             1.249e-02   1.397e-02    -1.903    -1.855     0.049     23.89
C(-4)         1.016e-20
   CH4             1.016e-20   1.136e-20   -19.993   -19.945     0.049     34.53
C(4)          2.399e-01
   HCO3-           2.266e-01   1.579e-01    -0.645    -0.802    -0.157     25.62
   CO3-2           4.647e-03   1.096e-03    -2.333    -2.960    -0.627     -3.61
   CaHCO3+         4.168e-03   2.966e-03    -2.380    -2.528    -0.148      9.47
   CaCO3           2.494e-03   2.789e-03    -2.603    -2.554     0.049    -14.63
   CO2             2.022e-03   2.262e-03    -2.694    -2.646     0.049     33.93
   (CO2)2          5.916e-08   6.617e-08    -7.228    -7.179     0.049     67.86
Ca            1.333e-02
   Ca+2            6.667e-03   1.779e-03    -2.176    -2.750    -0.574    -17.15
   CaHCO3+         4.168e-03   2.966e-03    -2.380    -2.528    -0.148      9.47
   CaCO3           2.494e-03   2.789e-03    -2.603    -2.554     0.049    -14.63
   CaOH+           7.345e-08   5.408e-08    -7.134    -7.267    -0.133     (0)  
Cl            2.390e-01
   Cl-             2.390e-01   1.567e-01    -0.622    -0.805    -0.183     18.25
H(0)          2.370e-14
   H2              1.185e-14   1.325e-14   -13.926   -13.878     0.049     28.62
O(0)          0.000e+00
   O2              0.000e+00   0.000e+00   -68.027   -67.978     0.049     29.51

------------------------------Saturation indices-------------------------------

  Phase               SI** log IAP   log K(288 K,   1 atm)

  Amm(g)           -3.87     -1.85    2.01  Amm
  Aragonite         2.57     -5.71   -8.28  CaCO3
  Calcite           2.72     -5.71   -8.43  CaCO3
  CH4(g)          -17.25    -19.94   -2.70  CH4
  CO2(g)           -1.30     -2.65   -1.34  CO2
  H2(g)           -10.80    -13.88   -3.07  H2
  H2O(g)           -1.78     -0.01    1.77  H2O
  O2(g)           -65.17    -67.98   -2.81  O2

**For a gas, SI = log10(fugacity). Fugacity = pressure * phi / 1 atm.
  For ideal gases, phi = 1.

Reaction step 9.

Using solution 1.	
Using reaction 1.	

Reaction 1.	

	  1.500e-02 moles of the following reaction have been added:

	                 Relative
	Reactant            moles

	Ca(OH)2              1.00000

	                 Relative
	Element             moles
	Ca                   1.00000
	H                    2.00000
	O                    2.00000

-----------------------------Solution composition------------------------------

	Elements           Molality       Moles

	Amm               4.698e-01   4.700e-01
	C                 2.399e-01   2.400e-01
	Ca                1.499e-02   1.500e-02
	Cl                2.390e-01   2.390e-01

----------------------------Description of solution----------------------------

                                       pH  =   8.330      Charge balance
                                       pe  =  -2.801      Adjusted to redox equilibrium
      Specific Conductance (µS/cm,  15°C)  = 39014
                          Density (g/cm³)  =   1.01240
                               Volume (L)  =   1.01985
                        Activity of water  =   0.984
                 Ionic strength (mol/kgw)  =   4.874e-01
                       Mass of water (kg)  =   1.000e+00
                 Total alkalinity (eq/kg)  =   2.609e-01
                       Total CO2 (mol/kg)  =   2.399e-01
                         Temperature (°C)  =  15.00
                  Electrical balance (eq)  =  -3.773e-13
 Percent error, 100*(Cat-|An|)/(Cat+|An|)  =  -0.00
                               Iterations  =  12
                                  Total H  = 1.117374e+02
                                  Total O  = 5.624419e+01

----------------------------Distribution of species----------------------------

                                               Log       Log       Log    mole V
   Species          Molality    Activity  Molality  Activity     Gamma   cm³/mol

   OH-             1.493e-06   9.534e-07    -5.826    -6.021    -0.195     -3.52
   H+              6.095e-09   4.681e-09    -8.215    -8.330    -0.115      0.00
   H2O             5.551e+01   9.837e-01     1.744    -0.007     0.000     18.03
Amm           4.698e-01
   AmmH+           4.556e-01   2.726e-01    -0.341    -0.564    -0.223     18.01
   Amm             1.427e-02   1.597e-02    -1.846    -1.797     0.049     23.89
C(-4)         6.377e-22
   CH4             6.377e-22   7.135e-22   -21.195   -21.147     0.049     34.53
C(4)          2.399e-01
   HCO3-           2.252e-01   1.569e-01    -0.647    -0.804    -0.157     25.62
   CO3-2           5.303e-03   1.250e-03    -2.276    -2.903    -0.628     -3.61
   CaHCO3+         4.549e-03   3.236e-03    -2.342    -2.490    -0.148      9.47
   CaCO3           3.122e-03   3.492e-03    -2.506    -2.457     0.049    -14.63
   CO2             1.750e-03   1.958e-03    -2.757    -2.708     0.049     33.93
   (CO2)2          4.435e-08   4.961e-08    -7.353    -7.304     0.049     67.86
Ca            1.499e-02
   Ca+2            7.324e-03   1.954e-03    -2.135    -2.709    -0.574    -17.15
   CaHCO3+         4.549e-03   3.236e-03    -2.342    -2.490    -0.148      9.47
   CaCO3           3.122e-03   3.492e-03    -2.506    -2.457     0.049    -14.63
   CaOH+           9.254e-08   6.815e-08    -7.034    -7.167    -0.133     (0)  
Cl            2.390e-01
   Cl-             2.390e-01   1.567e-01    -0.622    -0.805    -0.183     18.25
H(0)          1.230e-14
   H2              6.148e-15   6.878e-15   -14.211   -14.163     0.049     28.62
O(0)          0.000e+00
   O2              0.000e+00   0.000e+00   -67.457   -67.408     0.049     29.51

------------------------------Saturation indices-------------------------------

  Phase               SI** log IAP   log K(288 K,   1 atm)

  Amm(g)           -3.81     -1.80    2.01  Amm
  Aragonite         2.67     -5.61   -8.28  CaCO3
  Calcite           2.82     -5.61   -8.43  CaCO3
  CH4(g)          -18.45    -21.15   -2.70  CH4
  CO2(g)           -1.37     -2.71   -1.34  CO2
  H2(g)           -11.09    -14.16   -3.07  H2
  H2O(g)           -1.78     -0.01    1.77  H2O
  O2(g)           -64.60    -67.41   -2.81  O2

**For a gas, SI = log10(fugacity). Fugacity = pressure * phi / 1 atm.
  For ideal gases, phi = 1.

Reaction step 10.

Using solution 1.	
Using reaction 1.	

Reaction 1.	

	  1.667e-02 moles of the following reaction have been added:

	                 Relative
	Reactant            moles

	Ca(OH)2              1.00000

	                 Relative
	Element             moles
	Ca                   1.00000
	H                    2.00000
	O                    2.00000

-----------------------------Solution composition------------------------------

	Elements           Molality       Moles

	Amm               4.698e-01   4.700e-01
	C                 2.399e-01   2.400e-01
	Ca                1.666e-02   1.667e-02
	Cl                2.389e-01   2.390e-01

----------------------------Description of solution----------------------------

                                       pH  =   8.383      Charge balance
                                       pe  =  -2.901      Adjusted to redox equilibrium
      Specific Conductance (µS/cm,  15°C)  = 38964
                          Density (g/cm³)  =   1.01252
                               Volume (L)  =   1.01986
                        Activity of water  =   0.984
                 Ionic strength (mol/kgw)  =   4.885e-01
                       Mass of water (kg)  =   1.000e+00
                 Total alkalinity (eq/kg)  =   2.642e-01
                       Total CO2 (mol/kg)  =   2.399e-01
                         Temperature (°C)  =  15.00
                  Electrical balance (eq)  =  -9.833e-11
 Percent error, 100*(Cat-|An|)/(Cat+|An|)  =  -0.00
                               Iterations  =  11
                                  Total H  = 1.117408e+02
                                  Total O  = 5.624753e+01

----------------------------Distribution of species----------------------------

                                               Log       Log       Log    mole V
   Species          Molality    Activity  Molality  Activity     Gamma   cm³/mol

   OH-             1.688e-06   1.078e-06    -5.773    -5.968    -0.195     -3.52
   H+              5.394e-09   4.142e-09    -8.268    -8.383    -0.115      0.00
   H2O             5.551e+01   9.837e-01     1.744    -0.007     0.000     18.03
Amm           4.698e-01
   AmmH+           4.538e-01   2.714e-01    -0.343    -0.566    -0.223     18.01
   Amm             1.605e-02   1.797e-02    -1.794    -1.746     0.049     23.89
C(-4)         1.326e-21
   CH4             1.326e-21   1.484e-21   -20.878   -20.829     0.049     34.53
C(4)          2.399e-01
   HCO3-           2.237e-01   1.558e-01    -0.650    -0.807    -0.157     25.62
   CO3-2           5.956e-03   1.403e-03    -2.225    -2.853    -0.628     -3.60
   CaHCO3+         4.904e-03   3.489e-03    -2.309    -2.457    -0.148      9.47
   CaCO3           3.802e-03   4.255e-03    -2.420    -2.371     0.049    -14.63
   CO2             1.538e-03   1.721e-03    -2.813    -2.764     0.049     33.93
   (CO2)2          3.424e-08   3.832e-08    -7.465    -7.417     0.049     67.86
Ca            1.666e-02
   Ca+2            7.953e-03   2.121e-03    -2.099    -2.674    -0.574    -17.14
   CaHCO3+         4.904e-03   3.489e-03    -2.309    -2.457    -0.148      9.47
   CaCO3           3.802e-03   4.255e-03    -2.420    -2.371     0.049    -14.63
   CaOH+           1.135e-07   8.359e-08    -6.945    -7.078    -0.133     (0)  
Cl            2.389e-01
   Cl-             2.389e-01   1.567e-01    -0.622    -0.805    -0.183     18.25
H(0)          1.525e-14
   H2              7.623e-15   8.530e-15   -14.118   -14.069     0.049     28.62
O(0)          0.000e+00
   O2              0.000e+00   0.000e+00   -67.644   -67.595     0.049     29.51

------------------------------Saturation indices-------------------------------

  Phase               SI** log IAP   log K(288 K,   1 atm)

  Amm(g)           -3.76     -1.75    2.01  Amm
  Aragonite         2.75     -5.53   -8.28  CaCO3
  Calcite           2.90     -5.53   -8.43  CaCO3
  CH4(g)          -18.13    -20.83   -2.70  CH4
  CO2(g)           -1.42     -2.76   -1.34  CO2
  H2(g)           -11.00    -14.07   -3.07  H2
  H2O(g)           -1.78     -0.01    1.77  H2O
  O2(g)           -64.78    -67.60   -2.81  O2

**For a gas, SI = log10(fugacity). Fugacity = pressure * phi / 1 atm.
  For ideal gases, phi = 1.

Reaction step 11.

Using solution 1.	
Using reaction 1.	

Reaction 1.	

	  1.833e-02 moles of the following reaction have been added:

	                 Relative
	Reactant            moles

	Ca(OH)2              1.00000

	                 Relative
	Element             moles
	Ca                   1.00000
	H                    2.00000
	O                    2.00000

-----------------------------Solution composition------------------------------

	Elements           Molality       Moles

	Amm               4.698e-01   4.700e-01
	C                 2.399e-01   2.400e-01
	Ca                1.832e-02   1.833e-02
	Cl                2.389e-01   2.390e-01

----------------------------Description of solution----------------------------

                                       pH  =   8.431      Charge balance
                                       pe  =  -2.667      Adjusted to redox equilibrium
      Specific Conductance (µS/cm,  15°C)  = 38912
                          Density (g/cm³)  =   1.01264
                               Volume (L)  =   1.01986
                        Activity of water  =   0.984
                 Ionic strength (mol/kgw)  =   4.895e-01
                       Mass of water (kg)  =   1.000e+00
                 Total alkalinity (eq/kg)  =   2.675e-01
                       Total CO2 (mol/kg)  =   2.399e-01
                         Temperature (°C)  =  15.00
                  Electrical balance (eq)  =  -8.627e-11
 Percent error, 100*(Cat-|An|)/(Cat+|An|)  =  -0.00
                               Iterations  =  12
                                  Total H  = 1.117441e+02
                                  Total O  = 5.625086e+01

----------------------------Distribution of species----------------------------

                                               Log       Log       Log    mole V
   Species          Molality    Activity  Molality  Activity     Gamma   cm³/mol

   OH-             1.884e-06   1.203e-06    -5.725    -5.920    -0.195     -3.52
   H+              4.833e-09   3.711e-09    -8.316    -8.431    -0.115      0.00
   H2O             5.551e+01   9.837e-01     1.744    -0.007     0.000     18.03
Amm           4.698e-01
   AmmH+           4.519e-01   2.703e-01    -0.345    -0.568    -0.223     18.01
   Amm             1.784e-02   1.997e-02    -1.749    -1.700     0.049     23.89
C(-4)         6.570e-24
   CH4             6.570e-24   7.354e-24   -23.182   -23.133     0.049     34.53
C(4)          2.399e-01
   HCO3-           2.221e-01   1.547e-01    -0.653    -0.810    -0.157     25.63
   CO3-2           6.605e-03   1.555e-03    -2.180    -2.808    -0.628     -3.60
   CaHCO3+         5.238e-03   3.726e-03    -2.281    -2.429    -0.148      9.47
   CaCO3           4.531e-03   5.071e-03    -2.344    -2.295     0.049    -14.63
   CO2             1.368e-03   1.531e-03    -2.864    -2.815     0.049     33.93
   (CO2)2          2.709e-08   3.032e-08    -7.567    -7.518     0.049     67.86
Ca            1.832e-02
   Ca+2            8.556e-03   2.281e-03    -2.068    -2.642    -0.574    -17.14
   CaHCO3+         5.238e-03   3.726e-03    -2.281    -2.429    -0.148      9.47
   CaCO3           4.531e-03   5.071e-03    -2.344    -2.295     0.049    -14.63
   CaOH+           1.362e-07   1.003e-07    -6.866    -6.999    -0.133     (0)  
Cl            2.389e-01
   Cl-             2.389e-01   1.566e-01    -0.622    -0.805    -0.183     18.25
H(0)          4.164e-15
   H2              2.082e-15   2.331e-15   -14.681   -14.633     0.049     28.62
O(0)          0.000e+00
   O2              0.000e+00   0.000e+00   -66.517   -66.468     0.049     29.51

------------------------------Saturation indices-------------------------------

  Phase               SI** log IAP   log K(288 K,   1 atm)

  Amm(g)           -3.71     -1.70    2.01  Amm
  Aragonite         2.83     -5.45   -8.28  CaCO3
  Calcite           2.98     -5.45   -8.43  CaCO3
  CH4(g)          -20.44    -23.13   -2.70  CH4
  CO2(g)           -1.47     -2.82   -1.34  CO2
  H2(g)           -11.56    -14.63   -3.07  H2
  H2O(g)           -1.78     -0.01    1.77  H2O
  O2(g)           -63.66    -66.47   -2.81  O2

**For a gas, SI = log10(fugacity). Fugacity = pressure * phi / 1 atm.
  For ideal gases, phi = 1.

Reaction step 12.

Using solution 1.	
Using reaction 1.	

Reaction 1.	

	  2.000e-02 moles of the following reaction have been added:

	                 Relative
	Reactant            moles

	Ca(OH)2              1.00000

	                 Relative
	Element             moles
	Ca                   1.00000
	H                    2.00000
	O                    2.00000

-----------------------------Solution composition------------------------------

	Elements           Molality       Moles

	Amm               4.698e-01   4.700e-01
	C                 2.399e-01   2.400e-01
	Ca                1.999e-02   2.000e-02
	Cl                2.389e-01   2.390e-01

----------------------------Description of solution----------------------------

                                       pH  =   8.474      Charge balance
                                       pe  =  -3.066      Adjusted to redox equilibrium
      Specific Conductance (µS/cm,  15°C)  = 38858
                          Density (g/cm³)  =   1.01276
                               Volume (L)  =   1.01986
                        Activity of water  =   0.984
                 Ionic strength (mol/kgw)  =   4.903e-01
                       Mass of water (kg)  =   1.001e+00
                 Total alkalinity (eq/kg)  =   2.708e-01
                       Total CO2 (mol/kg)  =   2.399e-01
                         Temperature (°C)  =  15.00
                  Electrical balance (eq)  =  -3.707e-13
 Percent error, 100*(Cat-|An|)/(Cat+|An|)  =  -0.00
                               Iterations  =  11
                                  Total H  = 1.117474e+02
                                  Total O  = 5.625419e+01

----------------------------Distribution of species----------------------------

                                               Log       Log       Log    mole V
   Species          Molality    Activity  Molality  Activity     Gamma   cm³/mol

   OH-             2.082e-06   1.328e-06    -5.682    -5.877    -0.195     -3.52
   H+              4.376e-09   3.359e-09    -8.359    -8.474    -0.115      0.00
   H2O             5.551e+01   9.837e-01     1.744    -0.007     0.000     18.03
Amm           4.698e-01
   AmmH+           4.501e-01   2.691e-01    -0.347    -0.570    -0.223     18.01
   Amm             1.961e-02   2.196e-02    -1.707    -1.658     0.049     23.89
C(-4)         4.157e-21
   CH4             4.157e-21   4.653e-21   -20.381   -20.332     0.049     34.53
C(4)          2.399e-01
   HCO3-           2.205e-01   1.536e-01    -0.657    -0.814    -0.157     25.63
   CO3-2           7.247e-03   1.705e-03    -2.140    -2.768    -0.628     -3.60
   CaHCO3+         5.551e-03   3.948e-03    -2.256    -2.404    -0.148      9.47
   CaCO3           5.302e-03   5.936e-03    -2.276    -2.227     0.049    -14.63
   CO2             1.229e-03   1.376e-03    -2.910    -2.861     0.049     33.93
   (CO2)2          2.187e-08   2.449e-08    -7.660    -7.611     0.049     67.86
Ca            1.999e-02
   Ca+2            9.136e-03   2.435e-03    -2.039    -2.614    -0.574    -17.14
   CaHCO3+         5.551e-03   3.948e-03    -2.256    -2.404    -0.148      9.47
   CaCO3           5.302e-03   5.936e-03    -2.276    -2.227     0.049    -14.63
   CaOH+           1.607e-07   1.183e-07    -6.794    -6.927    -0.133     (0)  
Cl            2.389e-01
   Cl-             2.389e-01   1.566e-01    -0.622    -0.805    -0.184     18.25
H(0)          2.145e-14
   H2              1.072e-14   1.201e-14   -13.970   -13.921     0.049     28.62
O(0)          0.000e+00
   O2              0.000e+00   0.000e+00   -67.941   -67.892     0.049     29.51

------------------------------Saturation indices-------------------------------

  Phase               SI** log IAP   log K(288 K,   1 atm)

  Amm(g)           -3.67     -1.66    2.01  Amm
  Aragonite         2.90     -5.38   -8.28  CaCO3
  Calcite           3.05     -5.38   -8.43  CaCO3
  CH4(g)          -17.64    -20.33   -2.70  CH4
  CO2(g)           -1.52     -2.86   -1.34  CO2
  H2(g)           -10.85    -13.92   -3.07  H2
  H2O(g)           -1.78     -0.01    1.77  H2O
  O2(g)           -65.08    -67.89   -2.81  O2

**For a gas, SI = log10(fugacity). Fugacity = pressure * phi / 1 atm.
  For ideal gases, phi = 1.

Reaction step 13.

Using solution 1.	
Using reaction 1.	

Reaction 1.	

	  2.167e-02 moles of the following reaction have been added:

	                 Relative
	Reactant            moles

	Ca(OH)2              1.00000

	                 Relative
	Element             moles
	Ca                   1.00000
	H                    2.00000
	O                    2.00000

-----------------------------Solution composition------------------------------

	Elements           Molality       Moles

	Amm               4.697e-01   4.700e-01
	C                 2.399e-01   2.400e-01
	Ca                2.165e-02   2.167e-02
	Cl                2.389e-01   2.390e-01

----------------------------Description of solution----------------------------

                                       pH  =   8.513      Charge balance
                                       pe  =  -2.946      Adjusted to redox equilibrium
      Specific Conductance (µS/cm,  15°C)  = 38802
                          Density (g/cm³)  =   1.01287
                               Volume (L)  =   1.01987
                        Activity of water  =   0.984
                 Ionic strength (mol/kgw)  =   4.912e-01
                       Mass of water (kg)  =   1.001e+00
                 Total alkalinity (eq/kg)  =   2.741e-01
                       Total CO2 (mol/kg)  =   2.399e-01
                         Temperature (°C)  =  15.00
                  Electrical balance (eq)  =  -8.271e-13
 Percent error, 100*(Cat-|An|)/(Cat+|An|)  =  -0.00
                               Iterations  =  11
                                  Total H  = 1.117508e+02
                                  Total O  = 5.625753e+01

----------------------------Distribution of species----------------------------

                                               Log       Log       Log    mole V
   Species          Molality    Activity  Molality  Activity     Gamma   cm³/mol

   OH-             2.280e-06   1.455e-06    -5.642    -5.837    -0.195     -3.51
   H+              3.996e-09   3.067e-09    -8.398    -8.513    -0.115      0.00
   H2O             5.551e+01   9.837e-01     1.744    -0.007     0.000     18.03
Amm           4.697e-01
   AmmH+           4.483e-01   2.679e-01    -0.348    -0.572    -0.224     18.01
   Amm             2.138e-02   2.395e-02    -1.670    -1.621     0.049     23.89
C(-4)         2.004e-22
   CH4             2.004e-22   2.244e-22   -21.698   -21.649     0.049     34.53
C(4)          2.399e-01
   HCO3-           2.189e-01   1.524e-01    -0.660    -0.817    -0.157     25.63
   CO3-2           7.880e-03   1.853e-03    -2.103    -2.732    -0.629     -3.59
   CaCO3           6.113e-03   6.845e-03    -2.214    -2.165     0.049    -14.63
   CaHCO3+         5.845e-03   4.157e-03    -2.233    -2.381    -0.148      9.47
   CO2             1.114e-03   1.247e-03    -2.953    -2.904     0.049     33.93
   (CO2)2          1.796e-08   2.011e-08    -7.746    -7.697     0.049     67.86
Ca            2.165e-02
   Ca+2            9.696e-03   2.583e-03    -2.013    -2.588    -0.574    -17.14
   CaCO3           6.113e-03   6.845e-03    -2.214    -2.165     0.049    -14.63
   CaHCO3+         5.845e-03   4.157e-03    -2.233    -2.381    -0.148      9.47
   CaOH+           1.866e-07   1.375e-07    -6.729    -6.862    -0.133     (0)  
Cl            2.389e-01
   Cl-             2.389e-01   1.565e-01    -0.622    -0.805    -0.184     18.25
H(0)          1.030e-14
   H2              5.150e-15   5.766e-15   -14.288   -14.239     0.049     28.62
O(0)          0.000e+00
   O2              0.000e+00   0.000e+00   -67.304   -67.255     0.049     29.51

------------------------------Saturation indices-------------------------------

  Phase               SI** log IAP   log K(288 K,   1 atm)

  Amm(g)           -3.63     -1.62    2.01  Amm
  Aragonite         2.96     -5.32   -8.28  CaCO3
  Calcite           3.11     -5.32   -8.43  CaCO3
  CH4(g)          -18.95    -21.65   -2.70  CH4
  CO2(g)           -1.56     -2.90   -1.34  CO2
  H2(g)           -11.17    -14.24   -3.07  H2
  H2O(g)           -1.78     -0.01    1.77  H2O
  O2(g)           -64.44    -67.26   -2.81  O2

**For a gas, SI = log10(fugacity). Fugacity = pressure * phi / 1 atm.
  For ideal gases, phi = 1.

Reaction step 14.

Using solution 1.	
Using reaction 1.	

Reaction 1.	

	  2.333e-02 moles of the following reaction have been added:

	                 Relative
	Reactant            moles

	Ca(OH)2              1.00000

	                 Relative
	Element             moles
	Ca                   1.00000
	H                    2.00000
	O                    2.00000

-----------------------------Solution composition------------------------------

	Elements           Molality       Moles

	Amm               4.697e-01   4.700e-01
	C                 2.398e-01   2.400e-01
	Ca                2.332e-02   2.333e-02
	Cl                2.389e-01   2.390e-01

----------------------------Description of solution----------------------------

                                       pH  =   8.549      Charge balance
                                       pe  =  -3.042      Adjusted to redox equilibrium
      Specific Conductance (µS/cm,  15°C)  = 38745
                          Density (g/cm³)  =   1.01299
                               Volume (L)  =   1.01987
                        Activity of water  =   0.984
                 Ionic strength (mol/kgw)  =   4.919e-01
                       Mass of water (kg)  =   1.001e+00
                 Total alkalinity (eq/kg)  =   2.774e-01
                       Total CO2 (mol/kg)  =   2.398e-01
                         Temperature (°C)  =  15.00
                  Electrical balance (eq)  =  -3.708e-13
 Percent error, 100*(Cat-|An|)/(Cat+|An|)  =  -0.00
                               Iterations  =  11
                                  Total H  = 1.117541e+02
                                  Total O  = 5.626086e+01

----------------------------Distribution of species----------------------------

                                               Log       Log       Log    mole V
   Species          Molality    Activity  Molality  Activity     Gamma   cm³/mol

   OH-             2.479e-06   1.582e-06    -5.606    -5.801    -0.195     -3.51
   H+              3.676e-09   2.822e-09    -8.435    -8.549    -0.115      0.00
   H2O             5.551e+01   9.837e-01     1.744    -0.007     0.000     18.03
Amm           4.697e-01
   AmmH+           4.466e-01   2.668e-01    -0.350    -0.574    -0.224     18.01
   Amm             2.315e-02   2.592e-02    -1.636    -1.586     0.049     23.89
C(-4)         5.444e-22
   CH4             5.444e-22   6.097e-22   -21.264   -21.215     0.049     34.53
C(4)          2.398e-01
   HCO3-           2.172e-01   1.513e-01    -0.663    -0.820    -0.157     25.63
   CO3-2           8.505e-03   1.999e-03    -2.070    -2.699    -0.629     -3.59
   CaCO3           6.959e-03   7.793e-03    -2.157    -2.108     0.049    -14.63
   CaHCO3+         6.123e-03   4.354e-03    -2.213    -2.361    -0.148      9.47
   CO2             1.016e-03   1.138e-03    -2.993    -2.944     0.049     33.93
   (CO2)2          1.496e-08   1.676e-08    -7.825    -7.776     0.049     67.86
Ca            2.332e-02
   Ca+2            1.024e-02   2.726e-03    -1.990    -2.564    -0.575    -17.14
   CaCO3           6.959e-03   7.793e-03    -2.157    -2.108     0.049    -14.63
   CaHCO3+         6.123e-03   4.354e-03    -2.213    -2.361    -0.148      9.47
   CaOH+           2.142e-07   1.577e-07    -6.669    -6.802    -0.133     (0)  
Cl            2.389e-01
   Cl-             2.389e-01   1.565e-01    -0.622    -0.805    -0.184     18.25
H(0)          1.353e-14
   H2              6.763e-15   7.574e-15   -14.170   -14.121     0.049     28.62
O(0)          0.000e+00
   O2              0.000e+00   0.000e+00   -67.541   -67.492     0.049     29.51

------------------------------Saturation indices-------------------------------

  Phase               SI** log IAP   log K(288 K,   1 atm)

  Amm(g)           -3.60     -1.59    2.01  Amm
  Aragonite         3.02     -5.26   -8.28  CaCO3
  Calcite           3.17     -5.26   -8.43  CaCO3
  CH4(g)          -18.52    -21.21   -2.70  CH4
  CO2(g)           -1.60     -2.94   -1.34  CO2
  H2(g)           -11.05    -14.12   -3.07  H2
  H2O(g)           -1.78     -0.01    1.77  H2O
  O2(g)           -64.68    -67.49   -2.81  O2

**For a gas, SI = log10(fugacity). Fugacity = pressure * phi / 1 atm.
  For ideal gases, phi = 1.

Reaction step 15.

Using solution 1.	
Using reaction 1.	

Reaction 1.	

	  2.500e-02 moles of the following reaction have been added:

	                 Relative
	Reactant            moles

	Ca(OH)2              1.00000

	                 Relative
	Element             moles
	Ca                   1.00000
	H                    2.00000
	O                    2.00000

-----------------------------Solution composition------------------------------

	Elements           Molality       Moles

	Amm               4.697e-01   4.700e-01
	C                 2.398e-01   2.400e-01
	Ca                2.498e-02   2.500e-02
	Cl                2.389e-01   2.390e-01

----------------------------Description of solution----------------------------

                                       pH  =   8.583      Charge balance
                                       pe  =  -3.118      Adjusted to redox equilibrium
      Specific Conductance (µS/cm,  15°C)  = 38686
                          Density (g/cm³)  =   1.01311
                               Volume (L)  =   1.01987
                        Activity of water  =   0.984
                 Ionic strength (mol/kgw)  =   4.926e-01
                       Mass of water (kg)  =   1.001e+00
                 Total alkalinity (eq/kg)  =   2.808e-01
                       Total CO2 (mol/kg)  =   2.398e-01
                         Temperature (°C)  =  15.00
                  Electrical balance (eq)  =   5.980e-13
 Percent error, 100*(Cat-|An|)/(Cat+|An|)  =   0.00
                               Iterations  =  11
                                  Total H  = 1.117574e+02
                                  Total O  = 5.626419e+01

----------------------------Distribution of species----------------------------

                                               Log       Log       Log    mole V
   Species          Molality    Activity  Molality  Activity     Gamma   cm³/mol

   OH-             2.679e-06   1.709e-06    -5.572    -5.767    -0.195     -3.51
   H+              3.403e-09   2.612e-09    -8.468    -8.583    -0.115      0.00
   H2O             5.551e+01   9.837e-01     1.744    -0.007     0.000     18.03
Amm           4.697e-01
   AmmH+           4.448e-01   2.657e-01    -0.352    -0.576    -0.224     18.01
   Amm             2.490e-02   2.789e-02    -1.604    -1.555     0.049     23.89
C(-4)         1.087e-21
   CH4             1.087e-21   1.218e-21   -20.964   -20.914     0.049     34.53
C(4)          2.398e-01
   HCO3-           2.156e-01   1.501e-01    -0.666    -0.824    -0.157     25.64
   CO3-2           9.120e-03   2.143e-03    -2.040    -2.669    -0.629     -3.59
   CaCO3           7.838e-03   8.779e-03    -2.106    -2.057     0.049    -14.63
   CaHCO3+         6.385e-03   4.539e-03    -2.195    -2.343    -0.148      9.47
   CO2             9.330e-04   1.045e-03    -3.030    -2.981     0.049     33.93
   (CO2)2          1.262e-08   1.413e-08    -7.899    -7.850     0.049     67.86
Ca            2.498e-02
   Ca+2            1.076e-02   2.865e-03    -1.968    -2.543    -0.575    -17.14
   CaCO3           7.838e-03   8.779e-03    -2.106    -2.057     0.049    -14.63
   CaHCO3+         6.385e-03   4.539e-03    -2.195    -2.343    -0.148      9.47
   CaOH+           2.431e-07   1.791e-07    -6.614    -6.747    -0.133     (0)  
Cl            2.389e-01
   Cl-             2.389e-01   1.565e-01    -0.622    -0.806    -0.184     18.26
H(0)          1.642e-14
   H2              8.211e-15   9.197e-15   -14.086   -14.036     0.049     28.62
O(0)          0.000e+00
   O2              0.000e+00   0.000e+00   -67.710   -67.661     0.049     29.51

------------------------------Saturation indices-------------------------------

  Phase               SI** log IAP   log K(288 K,   1 atm)

  Amm(g)           -3.57     -1.55    2.01  Amm
  Aragonite         3.07     -5.21   -8.28  CaCO3
  Calcite           3.22     -5.21   -8.43  CaCO3
  CH4(g)          -18.22    -20.91   -2.70  CH4
  CO2(g)           -1.64     -2.98   -1.34  CO2
  H2(g)           -10.96    -14.04   -3.07  H2
  H2O(g)           -1.78     -0.01    1.77  H2O
  O2(g)           -64.85    -67.66   -2.81  O2

**For a gas, SI = log10(fugacity). Fugacity = pressure * phi / 1 atm.
  For ideal gases, phi = 1.

Reaction step 16.

Using solution 1.	
Using reaction 1.	

Reaction 1.	

	  2.667e-02 moles of the following reaction have been added:

	                 Relative
	Reactant            moles

	Ca(OH)2              1.00000

	                 Relative
	Element             moles
	Ca                   1.00000
	H                    2.00000
	O                    2.00000

-----------------------------Solution composition------------------------------

	Elements           Molality       Moles

	Amm               4.696e-01   4.700e-01
	C                 2.398e-01   2.400e-01
	Ca                2.665e-02   2.667e-02
	Cl                2.389e-01   2.390e-01

----------------------------Description of solution----------------------------

                                       pH  =   8.614      Charge balance
                                       pe  =  -2.892      Adjusted to redox equilibrium
      Specific Conductance (µS/cm,  15°C)  = 38627
                          Density (g/cm³)  =   1.01323
                               Volume (L)  =   1.01987
                        Activity of water  =   0.984
                 Ionic strength (mol/kgw)  =   4.932e-01
                       Mass of water (kg)  =   1.001e+00
                 Total alkalinity (eq/kg)  =   2.841e-01
                       Total CO2 (mol/kg)  =   2.398e-01
                         Temperature (°C)  =  15.00
                  Electrical balance (eq)  =  -2.207e-11
 Percent error, 100*(Cat-|An|)/(Cat+|An|)  =  -0.00
                               Iterations  =  11
                                  Total H  = 1.117608e+02
                                  Total O  = 5.626753e+01

----------------------------Distribution of species----------------------------

                                               Log       Log       Log    mole V
   Species          Molality    Activity  Molality  Activity     Gamma   cm³/mol

   OH-             2.879e-06   1.836e-06    -5.541    -5.736    -0.195     -3.51
   H+              3.167e-09   2.430e-09    -8.499    -8.614    -0.115      0.00
   H2O             5.551e+01   9.837e-01     1.744    -0.007     0.000     18.03
Amm           4.696e-01
   AmmH+           4.430e-01   2.646e-01    -0.354    -0.577    -0.224     18.01
   Amm             2.664e-02   2.984e-02    -1.574    -1.525     0.049     23.89
C(-4)         8.883e-24
   CH4             8.883e-24   9.951e-24   -23.051   -23.002     0.049     34.53
C(4)          2.398e-01
   HCO3-           2.139e-01   1.489e-01    -0.670    -0.827    -0.157     25.64
   CO3-2           9.726e-03   2.284e-03    -2.012    -2.641    -0.629     -3.59
   CaCO3           8.746e-03   9.798e-03    -2.058    -2.009     0.049    -14.63
   CaHCO3+         6.632e-03   4.714e-03    -2.178    -2.327    -0.148      9.47
   CO2             8.612e-04   9.648e-04    -3.065    -3.016     0.049     33.93
   (CO2)2          1.075e-08   1.204e-08    -7.969    -7.919     0.049     67.86
Ca            2.665e-02
   Ca+2            1.127e-02   3.000e-03    -1.948    -2.523    -0.575    -17.14
   CaCO3           8.746e-03   9.798e-03    -2.058    -2.009     0.049    -14.63
   CaHCO3+         6.632e-03   4.714e-03    -2.178    -2.327    -0.148      9.47
   CaOH+           2.735e-07   2.015e-07    -6.563    -6.696    -0.133     (0)  
Cl            2.389e-01
   Cl-             2.389e-01   1.564e-01    -0.622    -0.806    -0.184     18.26
H(0)          5.037e-15
   H2              2.518e-15   2.821e-15   -14.599   -14.550     0.049     28.62
O(0)          0.000e+00
   O2              0.000e+00   0.000e+00   -66.684   -66.634     0.049     29.51

------------------------------Saturation indices-------------------------------

  Phase               SI** log IAP   log K(288 K,   1 atm)

  Amm(g)           -3.54     -1.53    2.01  Amm
  Aragonite         3.11     -5.16   -8.28  CaCO3
  Calcite           3.27     -5.16   -8.43  CaCO3
  CH4(g)          -20.31    -23.00   -2.70  CH4
  CO2(g)           -1.67     -3.02   -1.34  CO2
  H2(g)           -11.48    -14.55   -3.07  H2
  H2O(g)           -1.78     -0.01    1.77  H2O
  O2(g)           -63.82    -66.63   -2.81  O2

**For a gas, SI = log10(fugacity). Fugacity = pressure * phi / 1 atm.
  For ideal gases, phi = 1.

Reaction step 17.

Using solution 1.	
Using reaction 1.	

Reaction 1.	

	  2.833e-02 moles of the following reaction have been added:

	                 Relative
	Reactant            moles

	Ca(OH)2              1.00000

	                 Relative
	Element             moles
	Ca                   1.00000
	H                    2.00000
	O                    2.00000

-----------------------------Solution composition------------------------------

	Elements           Molality       Moles

	Amm               4.696e-01   4.700e-01
	C                 2.398e-01   2.400e-01
	Ca                2.831e-02   2.833e-02
	Cl                2.389e-01   2.390e-01

----------------------------Description of solution----------------------------

                                       pH  =   8.644      Charge balance
                                       pe  =  -3.245      Adjusted to redox equilibrium
      Specific Conductance (µS/cm,  15°C)  = 38567
                          Density (g/cm³)  =   1.01335
                               Volume (L)  =   1.01987
                        Activity of water  =   0.984
                 Ionic strength (mol/kgw)  =   4.937e-01
                       Mass of water (kg)  =   1.001e+00
                 Total alkalinity (eq/kg)  =   2.874e-01
                       Total CO2 (mol/kg)  =   2.398e-01
                         Temperature (°C)  =  15.00
                  Electrical balance (eq)  =  -3.790e-13
 Percent error, 100*(Cat-|An|)/(Cat+|An|)  =  -0.00
                               Iterations  =  12
                                  Total H  = 1.117641e+02
                                  Total O  = 5.627086e+01

----------------------------Distribution of species----------------------------

                                               Log       Log       Log    mole V
   Species          Molality    Activity  Molality  Activity     Gamma   cm³/mol

   OH-             3.080e-06   1.964e-06    -5.511    -5.707    -0.195     -3.51
   H+              2.961e-09   2.272e-09    -8.529    -8.644    -0.115      0.00
   H2O             5.551e+01   9.837e-01     1.744    -0.007     0.000     18.03
Amm           4.696e-01
   AmmH+           4.412e-01   2.635e-01    -0.355    -0.579    -0.224     18.01
   Amm             2.837e-02   3.179e-02    -1.547    -1.498     0.049     23.89
C(-4)         3.218e-21
   CH4             3.218e-21   3.605e-21   -20.492   -20.443     0.049     34.53
C(4)          2.398e-01
   HCO3-           2.121e-01   1.477e-01    -0.673    -0.831    -0.157     25.64
   CO3-2           1.032e-02   2.423e-03    -1.986    -2.616    -0.629     -3.59
   CaCO3           9.683e-03   1.085e-02    -2.014    -1.965     0.049    -14.63
   CaHCO3+         6.865e-03   4.880e-03    -2.163    -2.312    -0.148      9.47
   CO2             7.985e-04   8.947e-04    -3.098    -3.048     0.049     33.93
   (CO2)2          9.243e-09   1.036e-08    -8.034    -7.985     0.049     67.86
Ca            2.831e-02
   Ca+2            1.176e-02   3.131e-03    -1.930    -2.504    -0.575    -17.14
   CaCO3           9.683e-03   1.085e-02    -2.014    -1.965     0.049    -14.63
   CaHCO3+         6.865e-03   4.880e-03    -2.163    -2.312    -0.148      9.47
   CaOH+           3.053e-07   2.249e-07    -6.515    -6.648    -0.133     (0)  
Cl            2.389e-01
   Cl-             2.389e-01   1.564e-01    -0.622    -0.806    -0.184     18.26
H(0)          2.239e-14
   H2              1.119e-14   1.254e-14   -13.951   -13.902     0.049     28.62
O(0)          0.000e+00
   O2              0.000e+00   0.000e+00   -67.980   -67.930     0.049     29.51

------------------------------Saturation indices-------------------------------

  Phase               SI** log IAP   log K(288 K,   1 atm)

  Amm(g)           -3.51     -1.50    2.01  Amm
  Aragonite         3.16     -5.12   -8.28  CaCO3
  Calcite           3.31     -5.12   -8.43  CaCO3
  CH4(g)          -17.75    -20.44   -2.70  CH4
  CO2(g)           -1.71     -3.05   -1.34  CO2
  H2(g)           -10.83    -13.90   -3.07  H2
  H2O(g)           -1.78     -0.01    1.77  H2O
  O2(g)           -65.12    -67.93   -2.81  O2

**For a gas, SI = log10(fugacity). Fugacity = pressure * phi / 1 atm.
  For ideal gases, phi = 1.

Reaction step 18.

Using solution 1.	
Using reaction 1.	

Reaction 1.	

	  3.000e-02 moles of the following reaction have been added:

	                 Relative
	Reactant            moles

	Ca(OH)2              1.00000

	                 Relative
	Element             moles
	Ca                   1.00000
	H                    2.00000
	O                    2.00000

-----------------------------Solution composition------------------------------

	Elements           Molality       Moles

	Amm               4.696e-01   4.700e-01
	C                 2.398e-01   2.400e-01
	Ca                2.997e-02   3.000e-02
	Cl                2.388e-01   2.390e-01

----------------------------Description of solution----------------------------

                                       pH  =   8.671      Charge balance
                                       pe  =  -3.120      Adjusted to redox equilibrium
      Specific Conductance (µS/cm,  15°C)  = 38506
                          Density (g/cm³)  =   1.01347
                               Volume (L)  =   1.01988
                        Activity of water  =   0.984
                 Ionic strength (mol/kgw)  =   4.942e-01
                       Mass of water (kg)  =   1.001e+00
                 Total alkalinity (eq/kg)  =   2.907e-01
                       Total CO2 (mol/kg)  =   2.398e-01
                         Temperature (°C)  =  15.00
                  Electrical balance (eq)  =   3.051e-12
 Percent error, 100*(Cat-|An|)/(Cat+|An|)  =   0.00
                               Iterations  =  11
                                  Total H  = 1.117674e+02
                                  Total O  = 5.627419e+01

----------------------------Distribution of species----------------------------

                                               Log       Log       Log    mole V
   Species          Molality    Activity  Molality  Activity     Gamma   cm³/mol

   OH-             3.281e-06   2.092e-06    -5.484    -5.679    -0.195     -3.51
   H+              2.779e-09   2.133e-09    -8.556    -8.671    -0.115      0.00
   H2O             5.551e+01   9.837e-01     1.744    -0.007     0.000     18.03
Amm           4.696e-01
   AmmH+           4.395e-01   2.624e-01    -0.357    -0.581    -0.224     18.02
   Amm             3.009e-02   3.372e-02    -1.522    -1.472     0.049     23.89
C(-4)         1.800e-22
   CH4             1.800e-22   2.017e-22   -21.745   -21.695     0.049     34.53
C(4)          2.398e-01
   HCO3-           2.104e-01   1.464e-01    -0.677    -0.834    -0.157     25.64
   CO3-2           1.091e-02   2.560e-03    -1.962    -2.592    -0.630     -3.58
   CaCO3           1.064e-02   1.193e-02    -1.973    -1.923     0.049    -14.63
   CaHCO3+         7.086e-03   5.037e-03    -2.150    -2.298    -0.148      9.47
[...]
Ca            2.502e-01
   CaOH+           1.322e-01   9.732e-02    -0.879    -1.012    -0.133     (0)  
   Ca+2            1.180e-01   3.148e-02    -0.928    -1.502    -0.574    -17.15
   CaCO3           6.726e-05   7.523e-05    -4.172    -4.124     0.049    -14.63
   CaHCO3+         1.103e-09   7.849e-10    -8.957    -9.105    -0.148      9.47
Cl            2.360e-01
   Cl-             2.360e-01   1.548e-01    -0.627    -0.810    -0.183     18.25
H(0)          1.523e-14
   H2              7.616e-15   8.518e-15   -14.118   -14.070     0.049     28.62
O(0)          0.000e+00
   O2              0.000e+00   0.000e+00   -67.645   -67.596     0.049     29.51

------------------------------Saturation indices-------------------------------

  Phase               SI** log IAP   log K(288 K,   1 atm)

  Amm(g)           -2.30     -0.28    2.01  Amm
  Aragonite         1.00     -7.28   -8.28  CaCO3
  Calcite           1.15     -7.28   -8.43  CaCO3
  CH4(g)          -30.85    -33.54   -2.70  CH4
  CO2(g)          -14.14    -15.48   -1.34  CO2
  H2(g)           -11.00    -14.07   -3.07  H2
  H2O(g)           -1.78     -0.01    1.77  H2O
  O2(g)           -64.78    -67.60   -2.81  O2

**For a gas, SI = log10(fugacity). Fugacity = pressure * phi / 1 atm.
  For ideal gases, phi = 1.

Reaction step 297.

Using solution 1.	
Using pure phase assemblage 1.	
Using reaction 1.	

Reaction 1.	

	  4.950e-01 moles of the following reaction have been added:

	                 Relative
	Reactant            moles

	Ca(OH)2              1.00000

	                 Relative
	Element             moles
	Ca                   1.00000
	H                    2.00000
	O                    2.00000

-------------------------------Phase assemblage--------------------------------

                                                      Moles in assemblage
Phase               SI  log IAP  log K(T, P)   Initial       Final       Delta

Aragonite         1.00    -7.28     -8.28    0.000e+00   2.399e-01   2.399e-01

-----------------------------Solution composition------------------------------

	Elements           Molality       Moles

	Amm               4.641e-01   4.700e-01
	C                 7.433e-05   7.527e-05
	Ca                2.519e-01   2.551e-01
	Cl                2.360e-01   2.390e-01

----------------------------Description of solution----------------------------

                                       pH  =  13.284      Charge balance
                                       pe  =  -7.483      Adjusted to redox equilibrium
      Specific Conductance (µS/cm,  15°C)  = 35895
                          Density (g/cm³)  =   1.01689
                               Volume (L)  =   1.02671
                        Activity of water  =   0.982
                 Ionic strength (mol/kgw)  =   4.880e-01
                       Mass of water (kg)  =   1.013e+00
                 Total alkalinity (eq/kg)  =   7.318e-01
                       Total CO2 (mol/kg)  =   7.433e-05
                         Temperature (°C)  =  15.00
                  Electrical balance (eq)  =  -1.552e-11
 Percent error, 100*(Cat-|An|)/(Cat+|An|)  =  -0.00
                               Iterations  =  16
                                  Total H  = 1.126974e+02
                                  Total O  = 5.648442e+01

----------------------------Distribution of species----------------------------

                                               Log       Log       Log    mole V
   Species          Molality    Activity  Molality  Activity     Gamma   cm³/mol

   OH-             1.339e-01   8.554e-02    -0.873    -1.068    -0.195     -3.52
   H+              6.779e-14   5.206e-14   -13.169   -13.284    -0.115      0.00
   H2O             5.551e+01   9.815e-01     1.744    -0.008     0.000     18.03
Amm           4.641e-01
   Amm             4.639e-01   5.191e-01    -0.334    -0.285     0.049     23.89
   AmmH+           1.648e-04   9.858e-05    -3.783    -4.006    -0.223     18.01
C(-4)         7.121e-37
   CH4             7.121e-37   7.968e-37   -36.147   -36.099     0.049     34.53
C(4)          7.433e-05
   CaCO3           6.723e-05   7.523e-05    -4.172    -4.124     0.049    -14.63
   CO3-2           7.092e-06   1.671e-06    -5.149    -5.777    -0.628     -3.61
   HCO3-           3.349e-09   2.333e-09    -8.475    -8.632    -0.157     25.62
   CaHCO3+         1.090e-09   7.753e-10    -8.963    -9.111    -0.148      9.47
   CO2             2.901e-16   3.246e-16   -15.538   -15.489     0.049     33.93
   (CO2)2          1.218e-33   1.363e-33   -32.914   -32.866     0.049     67.86
Ca            2.519e-01
   CaOH+           1.338e-01   9.850e-02    -0.874    -1.007    -0.133     (0)  
   Ca+2            1.180e-01   3.148e-02    -0.928    -1.502    -0.574    -17.15
   CaCO3           6.723e-05   7.523e-05    -4.172    -4.124     0.049    -14.63
   CaHCO3+         1.090e-09   7.753e-10    -8.963    -9.111    -0.148      9.47
Cl            2.360e-01
   Cl-             2.360e-01   1.548e-01    -0.627    -0.810    -0.183     18.25
H(0)          3.518e-15
   H2              1.759e-15   1.968e-15   -14.755   -14.706     0.049     28.62
O(0)          0.000e+00
   O2              0.000e+00   0.000e+00   -66.372   -66.324     0.049     29.51

------------------------------Saturation indices-------------------------------

  Phase               SI** log IAP   log K(288 K,   1 atm)

  Amm(g)           -2.30     -0.28    2.01  Amm
  Aragonite         1.00     -7.28   -8.28  CaCO3
  Calcite           1.15     -7.28   -8.43  CaCO3
  CH4(g)          -33.40    -36.10   -2.70  CH4
  CO2(g)          -14.15    -15.49   -1.34  CO2
  H2(g)           -11.63    -14.71   -3.07  H2
  H2O(g)           -1.78     -0.01    1.77  H2O
  O2(g)           -63.51    -66.32   -2.81  O2

**For a gas, SI = log10(fugacity). Fugacity = pressure * phi / 1 atm.
  For ideal gases, phi = 1.

Reaction step 298.

Using solution 1.	
Using pure phase assemblage 1.	
Using reaction 1.	

Reaction 1.	

	  4.967e-01 moles of the following reaction have been added:

	                 Relative
	Reactant            moles

	Ca(OH)2              1.00000

	                 Relative
	Element             moles
	Ca                   1.00000
	H                    2.00000
	O                    2.00000

-------------------------------Phase assemblage--------------------------------

                                                      Moles in assemblage
Phase               SI  log IAP  log K(T, P)   Initial       Final       Delta

Aragonite         1.00    -7.28     -8.28    0.000e+00   2.399e-01   2.399e-01

-----------------------------Solution composition------------------------------

	Elements           Molality       Moles

	Amm               4.641e-01   4.700e-01
	C                 7.431e-05   7.526e-05
	Ca                2.535e-01   2.567e-01
	Cl                2.360e-01   2.390e-01

----------------------------Description of solution----------------------------

                                       pH  =  13.289      Charge balance
                                       pe  =  -7.866      Adjusted to redox equilibrium
      Specific Conductance (µS/cm,  15°C)  = 36117
                          Density (g/cm³)  =   1.01702
                               Volume (L)  =   1.02670
                        Activity of water  =   0.981
                 Ionic strength (mol/kgw)  =   4.898e-01
                       Mass of water (kg)  =   1.013e+00
                 Total alkalinity (eq/kg)  =   7.351e-01
                       Total CO2 (mol/kg)  =   7.431e-05
                         Temperature (°C)  =  15.00
                  Electrical balance (eq)  =   3.429e-10
 Percent error, 100*(Cat-|An|)/(Cat+|An|)  =   0.00
                               Iterations  =  16
                                  Total H  = 1.127008e+02
                                  Total O  = 5.648775e+01

----------------------------Distribution of species----------------------------

                                               Log       Log       Log    mole V
   Species          Molality    Activity  Molality  Activity     Gamma   cm³/mol

   OH-             1.356e-01   8.658e-02    -0.868    -1.063    -0.195     -3.52
   H+              6.698e-14   5.143e-14   -13.174   -13.289    -0.115      0.00
   H2O             5.551e+01   9.815e-01     1.744    -0.008     0.000     18.03
Amm           4.641e-01
   Amm             4.639e-01   5.193e-01    -0.334    -0.285     0.049     23.89
   AmmH+           1.629e-04   9.742e-05    -3.788    -4.011    -0.223     18.01
C(-4)         7.299e-34
   CH4             7.299e-34   8.170e-34   -33.137   -33.088     0.049     34.53
C(4)          7.431e-05
   CaCO3           6.720e-05   7.523e-05    -4.173    -4.124     0.049    -14.63
   CO3-2           7.102e-06   1.671e-06    -5.149    -5.777    -0.628     -3.60
   HCO3-           3.310e-09   2.305e-09    -8.480    -8.637    -0.157     25.63
   CaHCO3+         1.077e-09   7.659e-10    -8.968    -9.116    -0.148      9.47
   CO2             2.830e-16   3.168e-16   -15.548   -15.499     0.049     33.93
   (CO2)2          1.160e-33   1.299e-33   -32.936   -32.887     0.049     67.86
Ca            2.535e-01
   CaOH+           1.354e-01   9.969e-02    -0.869    -1.001    -0.133     (0)  
   Ca+2            1.181e-01   3.147e-02    -0.928    -1.502    -0.574    -17.14
   CaCO3           6.720e-05   7.523e-05    -4.173    -4.124     0.049    -14.63
   CaHCO3+         1.077e-09   7.659e-10    -8.968    -9.116    -0.148      9.47
Cl            2.360e-01
   Cl-             2.360e-01   1.547e-01    -0.627    -0.810    -0.183     18.25
H(0)          2.002e-14
   H2              1.001e-14   1.121e-14   -14.000   -13.951     0.049     28.62
O(0)          0.000e+00
   O2              0.000e+00   0.000e+00   -67.883   -67.834     0.049     29.51

------------------------------Saturation indices-------------------------------

  Phase               SI** log IAP   log K(288 K,   1 atm)

  Amm(g)           -2.30     -0.28    2.01  Amm
  Aragonite         1.00     -7.28   -8.28  CaCO3
  Calcite           1.15     -7.28   -8.43  CaCO3
  CH4(g)          -30.39    -33.09   -2.70  CH4
  CO2(g)          -14.16    -15.50   -1.34  CO2
  H2(g)           -10.88    -13.95   -3.07  H2
  H2O(g)           -1.78     -0.01    1.77  H2O
  O2(g)           -65.02    -67.83   -2.81  O2

**For a gas, SI = log10(fugacity). Fugacity = pressure * phi / 1 atm.
  For ideal gases, phi = 1.

Reaction step 299.

Using solution 1.	
Using pure phase assemblage 1.	
Using reaction 1.	

Reaction 1.	

	  4.983e-01 moles of the following reaction have been added:

	                 Relative
	Reactant            moles

	Ca(OH)2              1.00000

	                 Relative
	Element             moles
	Ca                   1.00000
	H                    2.00000
	O                    2.00000

-------------------------------Phase assemblage--------------------------------

                                                      Moles in assemblage
Phase               SI  log IAP  log K(T, P)   Initial       Final       Delta

Aragonite         1.00    -7.28     -8.28    0.000e+00   2.399e-01   2.399e-01

-----------------------------Solution composition------------------------------

	Elements           Molality       Moles

	Amm               4.641e-01   4.700e-01
	C                 7.429e-05   7.524e-05
	Ca                2.552e-01   2.584e-01
	Cl                2.360e-01   2.390e-01

----------------------------Description of solution----------------------------

                                       pH  =  13.294      Charge balance
                                       pe  =  -7.731      Adjusted to redox equilibrium
      Specific Conductance (µS/cm,  15°C)  = 36338
                          Density (g/cm³)  =   1.01715
                               Volume (L)  =   1.02670
                        Activity of water  =   0.981
                 Ionic strength (mol/kgw)  =   4.915e-01
                       Mass of water (kg)  =   1.013e+00
                 Total alkalinity (eq/kg)  =   7.384e-01
                       Total CO2 (mol/kg)  =   7.429e-05
                         Temperature (°C)  =  15.00
                  Electrical balance (eq)  =  -3.489e-13
 Percent error, 100*(Cat-|An|)/(Cat+|An|)  =  -0.00
                               Iterations  =  17
                                  Total H  = 1.127041e+02
                                  Total O  = 5.649109e+01

----------------------------Distribution of species----------------------------

                                               Log       Log       Log    mole V
   Species          Molality    Activity  Molality  Activity     Gamma   cm³/mol

   OH-             1.373e-01   8.762e-02    -0.862    -1.057    -0.195     -3.51
   H+              6.619e-14   5.081e-14   -13.179   -13.294    -0.115      0.00
   H2O             5.551e+01   9.814e-01     1.744    -0.008     0.000     18.03
Amm           4.641e-01
   Amm             4.639e-01   5.195e-01    -0.334    -0.284     0.049     23.89
   AmmH+           1.611e-04   9.630e-05    -3.793    -4.016    -0.224     18.01
C(-4)         5.404e-35
   CH4             5.404e-35   6.052e-35   -34.267   -34.218     0.049     34.53
C(4)          7.429e-05
   CaCO3           6.718e-05   7.523e-05    -4.173    -4.124     0.049    -14.63
   CO3-2           7.111e-06   1.672e-06    -5.148    -5.777    -0.629     -3.59
   HCO3-           3.271e-09   2.278e-09    -8.485    -8.642    -0.157     25.63
   CaHCO3+         1.064e-09   7.567e-10    -8.973    -9.121    -0.148      9.47
   CO2             2.762e-16   3.093e-16   -15.559   -15.510     0.049     33.93
   (CO2)2          1.106e-33   1.238e-33   -32.956   -32.907     0.049     67.86
Ca            2.552e-01
   CaOH+           1.370e-01   1.009e-01    -0.863    -0.996    -0.133     (0)  
   Ca+2            1.181e-01   3.147e-02    -0.928    -1.502    -0.575    -17.14
   CaCO3           6.718e-05   7.523e-05    -4.173    -4.124     0.049    -14.63
   CaHCO3+         1.064e-09   7.567e-10    -8.973    -9.121    -0.148      9.47
Cl            2.360e-01
   Cl-             2.360e-01   1.546e-01    -0.627    -0.811    -0.184     18.25
H(0)          1.050e-14
   H2              5.251e-15   5.881e-15   -14.280   -14.231     0.049     28.62
O(0)          0.000e+00
   O2              0.000e+00   0.000e+00   -67.324   -67.274     0.049     29.51

------------------------------Saturation indices-------------------------------

  Phase               SI** log IAP   log K(288 K,   1 atm)

  Amm(g)           -2.30     -0.28    2.01  Amm
  Aragonite         1.00     -7.28   -8.28  CaCO3
  Calcite           1.15     -7.28   -8.43  CaCO3
  CH4(g)          -31.52    -34.22   -2.70  CH4
  CO2(g)          -14.17    -15.51   -1.34  CO2
  H2(g)           -11.16    -14.23   -3.07  H2
  H2O(g)           -1.78     -0.01    1.77  H2O
  O2(g)           -64.46    -67.27   -2.81  O2

**For a gas, SI = log10(fugacity). Fugacity = pressure * phi / 1 atm.
  For ideal gases, phi = 1.

Reaction step 300.

Using solution 1.	
Using pure phase assemblage 1.	
Using reaction 1.	

Reaction 1.	

	  5.000e-01 moles of the following reaction have been added:

	                 Relative
	Reactant            moles

	Ca(OH)2              1.00000

	                 Relative
	Element             moles
	Ca                   1.00000
	H                    2.00000
	O                    2.00000

-------------------------------Phase assemblage--------------------------------

                                                      Moles in assemblage
Phase               SI  log IAP  log K(T, P)   Initial       Final       Delta

Aragonite         1.00    -7.28     -8.28    0.000e+00   2.399e-01   2.399e-01

-----------------------------Solution composition------------------------------

	Elements           Molality       Moles

	Amm               4.641e-01   4.700e-01
	C                 7.427e-05   7.522e-05
	Ca                2.568e-01   2.601e-01
	Cl                2.360e-01   2.390e-01

----------------------------Description of solution----------------------------

                                       pH  =  13.299      Charge balance
                                       pe  =  -7.785      Adjusted to redox equilibrium
      Specific Conductance (µS/cm,  15°C)  = 36560
                          Density (g/cm³)  =   1.01727
                               Volume (L)  =   1.02669
                        Activity of water  =   0.981
                 Ionic strength (mol/kgw)  =   4.933e-01
                       Mass of water (kg)  =   1.013e+00
                 Total alkalinity (eq/kg)  =   7.417e-01
                       Total CO2 (mol/kg)  =   7.427e-05
                         Temperature (°C)  =  15.00
                  Electrical balance (eq)  =  -2.537e-10
 Percent error, 100*(Cat-|An|)/(Cat+|An|)  =  -0.00
                               Iterations  =  16
                                  Total H  = 1.127074e+02
                                  Total O  = 5.649442e+01

----------------------------Distribution of species----------------------------

                                               Log       Log       Log    mole V
   Species          Molality    Activity  Molality  Activity     Gamma   cm³/mol

   OH-             1.390e-01   8.867e-02    -0.857    -1.052    -0.195     -3.51
   H+              6.542e-14   5.021e-14   -13.184   -13.299    -0.115      0.00
   H2O             5.551e+01   9.814e-01     1.744    -0.008     0.000     18.03
Amm           4.641e-01
   Amm             4.639e-01   5.197e-01    -0.334    -0.284     0.049     23.89
   AmmH+           1.594e-04   9.520e-05    -3.798    -4.021    -0.224     18.01
C(-4)         1.285e-34
   CH4             1.285e-34   1.439e-34   -33.891   -33.842     0.049     34.53
C(4)          7.427e-05
   CaCO3           6.715e-05   7.523e-05    -4.173    -4.124     0.049    -14.63
   CO3-2           7.120e-06   1.672e-06    -5.148    -5.777    -0.629     -3.59
   HCO3-           3.234e-09   2.251e-09    -8.490    -8.648    -0.157     25.64
   CaHCO3+         1.052e-09   7.478e-10    -8.978    -9.126    -0.148      9.47
   CO2             2.697e-16   3.021e-16   -15.569   -15.520     0.049     33.93
   (CO2)2          1.054e-33   1.181e-33   -32.977   -32.928     0.049     67.86
Ca            2.568e-01
   CaOH+           1.385e-01   1.021e-01    -0.858    -0.991    -0.133     (0)  
   Ca+2            1.182e-01   3.146e-02    -0.927    -1.502    -0.575    -17.14
   CaCO3           6.715e-05   7.523e-05    -4.173    -4.124     0.049    -14.63
   CaHCO3+         1.052e-09   7.478e-10    -8.978    -9.126    -0.148      9.47
Cl            2.360e-01
   Cl-             2.360e-01   1.546e-01    -0.627    -0.811    -0.184     18.26
H(0)          1.311e-14
   H2              6.557e-15   7.346e-15   -14.183   -14.134     0.049     28.62
O(0)          0.000e+00
   O2              0.000e+00   0.000e+00   -67.517   -67.468     0.049     29.51

------------------------------Saturation indices-------------------------------

  Phase               SI** log IAP   log K(288 K,   1 atm)

  Amm(g)           -2.30     -0.28    2.01  Amm
  Aragonite         1.00     -7.28   -8.28  CaCO3
  Calcite           1.15     -7.28   -8.43  CaCO3
  CH4(g)          -31.15    -33.84   -2.70  CH4
  CO2(g)          -14.18    -15.52   -1.34  CO2
  H2(g)           -11.06    -14.13   -3.07  H2
  H2O(g)           -1.78     -0.01    1.77  H2O
  O2(g)           -64.66    -67.47   -2.81  O2

**For a gas, SI = log10(fugacity). Fugacity = pressure * phi / 1 atm.
  For ideal gases, phi = 1.

------------------
End of simulation.
------------------

------------------------------------
Reading input data for simulation 6.
------------------------------------

----------------------------------
End of Run after 0.140612 Seconds.
----------------------------------

